<additional>
<tazs>
    <taz id="101_F" edges = "44922136#0">
	</taz>
	<taz id="101_T" edges = "132800092#2">
	</taz>
	<taz id="102" edges = "156298621#0">
	</taz>
	<taz id="103_F" edges = "-92837563#1">
	</taz>
	<taz id="103_T" edges = "92837563#0">
	</taz>
	<taz id="104" edges = "8657991#0">
	</taz>
	<taz id="105" edges = "8657988#4">
	</taz>
	<taz id="106" edges = "-296659987">
	</taz>
	<taz id="108_F" edges = "256807655">
	</taz>
	<taz id="108_T" edges = "133891910">
	</taz>
	<taz id="109_F" edges = "377735620">
	</taz>
	<taz id="109_T" edges = "300625958">
	</taz>
	<taz id="110" edges = "300625958">
	</taz>
	<taz id="111_T" edges = "29346809#0">
	</taz>
	<taz id="111_F" edges = "4519608#1">
	</taz>
	<taz id="111_F1" edges = "29346809#1">
	</taz>
	<taz id="111_T1" edges = "4519608#0">
	</taz>
	<taz id="112_F" edges = "-45090166#0">
	</taz>
	<taz id="112_T" edges = "45090166#0">
	</taz>
	<taz id="113" edges = "5783041#0">
	</taz>
	<taz id="114_F" edges = "142707726#2">
	</taz>
	<taz id="114_T" edges = "-142707726#2">
	</taz>
	<taz id="115" edges = "5382681#4">
	</taz>
	<taz id="116_F" edges = "-8657200#3">
	</taz>
	<taz id="116_T" edges = "8657200#2">
	</taz>
	<taz id="117_F" edges = "4963156#4">
	</taz>
	<taz id="117_T" edges = "-4963156#5">
	</taz>
	<taz id="118_F" edges = "-44624281#2">
	</taz>
	<taz id="118_T" edges = "44624281#2">
	</taz>
	<taz id="119" edges = "156009183">
	</taz>
	<taz id="120" edges = "575446171">
	</taz>
	<taz id="121" edges = "45776772#4">
	</taz>
	<taz id="122" edges = "-45776772#4">
	</taz>
	<taz id="123" edges = "328659287#1">
	</taz>
	
	
</tazs>
</additional>