<additional>
<tazs>
    <taz id="201_F" edges = "167637435#0">
	</taz>
	<taz id="201_T" edges = "26221807#2">
	</taz>
	<taz id="202" edges = "35428747#0">
	</taz>
	<taz id="203" edges = "154771451">
	</taz>
	<taz id="204" edges = "156298623#0">
	</taz>
	<taz id="205" edges = "33889722">
	</taz>
	<taz id="206_T" edges = "36834807#0">
	</taz>
	<taz id="206_F" edges = "-36834807#0">
	</taz>
	<taz id="207" edges = "715552024">
	</taz>
	<taz id="208" edges = "30785611#1">
	</taz>
	<taz id="210_T" edges = "266324438">
	</taz>
	<taz id="210_F" edges = "26222402#0">
	</taz>
	<taz id="210_F1" edges = "5061312#2">
	</taz>
	<taz id="209" edges = "30785606#0">
	</taz>
	<taz id="211_F" edges = "181063870#0">
	</taz>
	<taz id="211_T" edges = "-181063870#0">
	</taz>
	<taz id="212_F" edges = "181063862">
	</taz>
	<taz id="212_F1" edges = "28269923#0">
	</taz>
	<taz id="212_T" edges = "32863436#0">
	</taz>
	<taz id="212_F2" edges = "39576977">
	</taz>
	<taz id="212_T2" edges = "120596933#0">
	</taz>
	<taz id="213" edges = "8654597#0">
	</taz>
	<taz id="214" edges = "5061246#1">
	</taz>
	<taz id="215_F" edges = "147215265#0">
	</taz>
	<taz id="215_F1" edges = "113193980#0">
	</taz>
	<taz id="215_T" edges = "-147215265#0">
	</taz>
	<taz id="216_F" edges = "-120596941#2">
	</taz>
	<taz id="216_T" edges = "120596941#2">
	</taz>
	<taz id="217" edges = "5134050#3">
	</taz>
	<taz id="218_T" edges = "120596930#1">
	</taz>
	<taz id="218_F" edges = "120596930#4">
	</taz>
	<taz id="219" edges = "5134051#2">
	</taz>
	<taz id="220_F" edges = "-120596945#3">
	</taz>
	<taz id="220_T" edges = "120596945#1">
	</taz>
	<taz id="221_F" edges = "5108387#0">
	</taz>
	<taz id="221_T" edges = "340319396">
	</taz>
	<taz id="222_F" edges = "-5380614#1">
	</taz>
	<taz id="222_T" edges = "5380614#0">
	</taz>
	<taz id="223" edges = "340319397#2">
	</taz>
	<taz id="224_F" edges = "5065318">
	</taz>
	<taz id="224_T1" edges = "66227411">
	</taz>
	<taz id="224_T2" edges = "5065316">
	</taz>
	<taz id="225_F" edges = "-120555840">
	</taz>
	<taz id="225_T" edges = "120555840">
	</taz>
	<taz id="226" edges = "62333278#0">
	</taz>
	
	
	
</tazs>
</additional>