<additional>
<tazs>
    <taz id="1_F" edges = "39630219#0">
	</taz>
	<taz id="1_T" edges = "26222402#0">
	</taz>
	<taz id="2" edges = "32863436#0">
	</taz>
	<taz id="4" edges = "5097999#0">
	</taz>
	<taz id="6_T" edges = "-31285963#0">
	</taz>
	<taz id="6_F" edges = "31285963#0">
	</taz>
	<taz id="7_F" edges = "23115545#1">
	</taz>
	<taz id="7_T" edges = "-23115545#1">
	</taz>
	<taz id="9" edges = "5108632#2">
	</taz>
	<taz id="10_T" edges = "-30280108#1">
	</taz>
	<taz id="10_F" edges = "30280108#1">
	</taz>
	<taz id="11_T" edges = "44796144#2">
	</taz>
	<taz id="11_F" edges = "-5061740#1">
	</taz>
	<taz id="12_F" edges = "-926255419#1">
	</taz>
	<taz id="12_T" edges = "384021162#1">
	</taz>
	<taz id="12_T1" edges = "926255416#1">
	</taz>
	<taz id="12_F1" edges = "926255418">
	</taz>
	<taz id="13" edges = "4607691#2">
	</taz>
	<taz id="14_F" edges = "5381965#7">
	</taz>
	<taz id="14_T" edges = "-5381965#11">
	</taz>
	<taz id="15" edges = "90068360#0">
	</taz>
	<taz id="16_F" edges = "15802547#0">
	</taz>
	<taz id="16_T" edges = "-15802547#1">
	</taz>
	<taz id="18_T" edges = "-5381964#4">
	</taz>
	<taz id="18_F" edges = "5381964#2">
	</taz>	
	<taz id="19_F" edges = "30320047#2">
	</taz>
	<taz id="19_T" edges = "4607691#4">
	</taz>
	<taz id="19_F1" edges = "4607691#5">
	</taz>
	<taz id="19_T1" edges = "30320047#2">
	</taz>
	<taz id="20" edges = "154017362#1">
	</taz>
	<taz id="21_T" edges = "41368224#0">
	</taz>
	<taz id="21_F" edges = "-41368224#0">
	</taz>
	<taz id="22_T" edges = "926263692">
	</taz>
	<taz id="22_F" edges = "4499737#3">
	</taz>
	<taz id="23" edges = "154017360#0">
	</taz>
	<taz id="24" edges = "5381968#13">
	</taz>
	<taz id="25_T" edges = "26951096#0">
	</taz>
	<taz id="25_F" edges = "-26951096#1">
	</taz>
	<taz id="26" edges = "90261750#1">
	</taz>
	<taz id="27_F" edges = "-5382681#1">
	</taz>
	<taz id="27_T" edges = "5382681#0">
	</taz>
	<taz id="28" edges = "8657209#0">
	</taz>
	<taz id="29_F" edges = "-4963156#3">
	</taz>
	<taz id="29_T" edges = "4963156#0">
	</taz>
	<taz id="30_T" edges = "45776772#1">
	</taz>
	<taz id="30_F" edges = "-45776772#1">
	</taz>

	
</tazs>
</additional>