
<configuration>

    <input>
        <net-file value="C:/HIS_Masters/UrbanTraffic/SUMO_Testmaps/Simulation_Sachsenhausen/Final Network/Simulation/OD_Car/Simulation/Sachsenhausen_network.net.xml"/>
        <route-files value="OD_Kennedyalle_KtoM_1.odtrips.xml,OD_Kennedyalle_KtoM_2.odtrips.xml,OD_Kennedyalle_MtoK_1.odtrips.xml,OD_Kennedyalle_MtoK_2.odtrips.xml"/>
    </input>
	
	<output>
        <output-file value="C:/HIS_Masters/UrbanTraffic/SUMO_Testmaps/Simulation_Sachsenhausen/Final Network/Simulation/OD_Car/Simulation/OD_Kennedyallee.odtrips.rou.xml"/>
    </output>


    <report>
        <xml-validation value="never"/>
        <no-step-log value="true"/>
    </report>

</configuration>